powerflow/Codes/PF_Formulation/resultados_csv/18/3bus/ramos.csv
caso,script,branch_id,f_bus,t_bus,pf_pu,qf_pu,pt_pu,qt_pu,loss_p_pu,loss_q_pu
3bus.pwf,18,1,1,2,0.017942423268722488,-0.020243221751638868,-0.017811830530310838,0.02036876394215595,0.0001305927384116501,0.0001255421905170806
3bus.pwf,18,2,1,3,0.1653356248983734,0.021407716661154777,-0.16037509025859997,-0.016639025902477525,0.004960534639773417,0.004768690758677252
3bus.pwf,18,3,2,3,0.1477118305303091,0.04067596977282382,-0.14352490974139706,-0.036650974097294876,0.00418692078891203,0.004024995675528942
